  
       XFOIL         Version 6.99
  
 Calculated polar for: EPPLER E836 HYDROFOIL AIRFOIL                   
  
 1 1 Reynolds number fixed          Mach number fixed         
  
 xtrf =   1.000 (top)        1.000 (bottom)  
 Mach =   0.000     Re =     0.563 e 6     Ncrit =   9.000
  
   alpha    CL        CD       CDp       CM     Top_Xtr  Bot_Xtr
  ------ -------- --------- --------- -------- -------- --------
   2.000   0.2236   0.00707   0.00251  -0.0006   0.7329   0.8150
