  
       XFOIL         Version 6.99
  
 Calculated polar for: EPPLER E836 HYDROFOIL AIRFOIL                   
  
 1 1 Reynolds number fixed          Mach number fixed         
  
 xtrf =   0.100 (top)        0.100 (bottom)  
 Mach =   0.000     Re =     0.001 e 6     Ncrit =   9.000
  
   alpha    CL        CD       CDp       CM     Top_Xtr  Bot_Xtr
  ------ -------- --------- --------- -------- -------- --------
   0.000   0.0000   0.11754   0.02860   0.0000   0.1000   0.1000
